LTspice 24.1.9 for Windows
Circuit: Z:\home\jlogan\git\deimos\hardware\sims\analog_i_filters\sk2_filter_3kHz.net
Start Time: Mon Jul 28 08:10:43 2025
solver = Normal
Maximum thread count: 12
tnom = 27
temp = 27
method = trap
.OP point found by inspection.
Total elapsed time: 0.031 seconds.

Files loaded:
Z:\home\jlogan\git\deimos\hardware\sims\analog_i_filters\sk2_filter_3kHz.net
C:\users\jlogan\AppData\Local\LTspice\lib\sub\opamp.sub

